[TITLE]
;;Project Title/Notes
West Salem Full System (Test)

[OPTIONS]
;;Option             Value
FLOW_UNITS           CMS
INFILTRATION         HORTON
FLOW_ROUTING         DYNWAVE
LINK_OFFSETS         DEPTH
MIN_SLOPE            0
ALLOW_PONDING        NO
SKIP_STEADY_STATE    NO

START_DATE           01/10/2024
START_TIME           00:00:00
REPORT_START_DATE    01/10/2024
REPORT_START_TIME    00:00:00
END_DATE             01/15/2024
END_TIME             00:00:00
SWEEP_START          01/01
SWEEP_END            12/31
DRY_DAYS             0
REPORT_STEP          00:15:00
WET_STEP             00:05:00
DRY_STEP             01:00:00
ROUTING_STEP         0:00:20 
RULE_STEP            00:00:00

INERTIAL_DAMPING     PARTIAL
NORMAL_FLOW_LIMITED  BOTH
FORCE_MAIN_EQUATION  H-W
VARIABLE_STEP        0.75
LENGTHENING_STEP     0
MIN_SURFAREA         12.566
MAX_TRIALS           8
HEAD_TOLERANCE       0.005
SYS_FLOW_TOL         5
LAT_FLOW_TOL         5
MINIMUM_STEP         0.5
THREADS              1

[EVAPORATION]
;;Data Source    Parameters
;;-------------- ----------------
CONSTANT         0.0
DRY_ONLY         NO

[RAINGAGES]
;;Name           Format    Interval SCF      Source    
;;-------------- --------- ------ ------ ----------
5                INTENSITY 1:00     1.0      TIMESERIES TS1             

[SUBCATCHMENTS]
;;Name           Rain Gage        Outlet           Area     %Imperv  Width    %Slope   CurbLen  SnowPack        
;;-------------- ---------------- ---------------- -------- -------- -------- -------- -------- ----------------
1352             5                30-470009        0.000000 0.000000 54.985920 0.300000 0.000000                 
1353             5                30-470010        0.000000 0.000000 62.148720 1.100000 0.000000                 
1354             5                30-470011        0.000000 0.000000 94.244160 1.700000 0.000000                 
1355             5                33-470003        0.000000 0.000000 185.745120 2.600000 0.000000                 
1356             5                30-470004        0.000000 0.000000 128.656080 0.400000 0.000000                 
1357             5                33-472011        0.000000 0.000000 54.406800 0.400000 0.000000                 
1358             5                33-472041        0.000000 0.000000 85.344000 1.600000 0.000000                 
1359             5                33-472015        0.000000 0.000000 341.101680 1.000000 0.000000                 
1360             5                30-474041        0.000000 0.000000 87.782400 2.400000 0.000000                 
1361             5                2332             0.000000 0.000000 70.774560 5.100000 0.000000                 
1362             5                2348             0.000000 0.000000 69.281040 6.100000 0.000000                 
1363             5                2334             0.000000 0.000000 174.650400 6.200000 0.000000                 
1364             5                2329             0.000000 0.000000 96.042480 2.900000 0.000000                 
1365             5                33-472043        0.000000 0.000000 160.721040 6.700000 0.000000                 
1366             5                33-472022        0.000000 0.000000 84.124800 1.600000 0.000000                 
1367             5                33-472037        0.000000 0.000000 95.951040 0.600000 0.000000                 
1368             5                33-472027        0.000000 0.000000 23.164800 0.200000 0.000000                 
1369             5                33-472035        0.000000 0.000000 43.677840 0.000000 0.000000                 
1370             5                36-472004        0.000000 0.000000 17.861280 0.200000 0.000000                 
1371             5                33-472035        0.000000 0.000000 96.926400 0.000000 0.000000                 
1372             5                36-474066        0.000000 0.000000 71.140320 7.600000 0.000000                 
1373             5                33-474124        0.000000 0.000000 94.152720 9.500000 0.000000                 
1374             5                33-474123        0.000000 0.000000 68.458080 6.500000 0.000000                 
1375             5                33-474031        0.000000 0.000000 156.027120 2.900000 0.000000                 
1376             5                33-474030        0.000000 0.000000 162.976560 2.400000 0.000000                 
1377             5                33-474024        0.000000 0.000000 33.741360 6.400000 0.000000                 
1378             5                33-474029        0.000000 0.000000 183.154320 3.300000 0.000000                 
1379             5                33-474084        0.000000 0.000000 109.849920 6.100000 0.000000                 
1380             5                30-474038        0.000000 0.000000 227.838000 3.200000 0.000000                 
1381             5                30-476016        0.000000 0.000000 114.513360 1.300000 0.000000                 
1382             5                30-474087        0.000000 0.000000 101.559360 10.000000 0.000000                 
1383             5                30-474080        0.000000 0.000000 214.762080 1.500000 0.000000                 
1384             5                30-474070        0.000000 0.000000 183.337200 2.900000 0.000000                 
1385             5                30-474036        0.000000 0.000000 174.406560 18.700000 0.000000                 
1386             5                33-476083        0.000000 0.000000 163.738560 17.500000 0.000000                 
1387             5                33-476061        0.000000 0.000000 38.343840 6.700000 0.000000                 
1388             5                36-474083        0.000000 0.000000 40.690800 0.400000 0.000000                 
1389             5                36-474084        0.000000 0.000000 40.705118 0.600000 0.000000                 
1390             5                36-474085        0.000000 0.000000 189.524640 0.900000 0.000000                 
1391             5                36-474018        0.000000 0.000000 38.770560 0.000000 0.000000                 
1392             5                33-476089        0.000000 0.000000 61.752480 0.300000 0.000000                 
1393             5                33-476088        0.000000 0.000000 115.915440 11.700000 0.000000                 
1394             5                33-476094        0.000000 0.000000 73.639680 9.100000 0.000000                 
1395             5                33-476110        0.000000 0.000000 54.985920 2.200000 0.000000                 
1396             5                33-476111        0.000000 0.000000 94.975680 11.900000 0.000000                 
1397             5                36-476026        0.000000 0.000000 46.146720 1.100000 0.000000                 
1398             5                33-476109        0.000000 0.000000 41.239440 0.000000 0.000000                 
1399             5                36-476021        0.000000 0.000000 72.329040 1.000000 0.000000                 
1400             5                33-476100        0.000000 0.000000 90.921840 6.100000 0.000000                 
1401             5                33-476099        0.000000 0.000000 37.277040 12.700000 0.000000                 
1402             5                36-476017        0.000000 0.000000 171.114720 6.700000 0.000000                 
1403             5                33-478023        0.000000 0.000000 112.410240 1.100000 0.000000                 
1404             5                33-478019        0.000000 0.000000 207.873600 1.600000 0.000000                 
1405             5                33-478006        0.000000 0.000000 64.190880 2.600000 0.000000                 
1406             5                33-478006        0.000000 0.000000 135.056880 2.600000 0.000000                 
1407             5                33-478007        0.000000 0.000000 100.919280 0.100000 0.000000                 
1409             5                30-478059        0.000000 0.000000 60.899040 1.300000 0.000000                 
1410             5                30-478063        0.000000 0.000000 32.918400 5.700000 0.000000                 
1411             5                30-478061        0.000000 0.000000 106.375200 1.100000 0.000000                 
1412             5                30-478047        0.000000 0.000000 73.700640 1.000000 0.000000                 
1413             5                27-476002        0.000000 0.000000 54.315360 3.300000 0.000000                 
1414             5                24-476003        0.000000 0.000000 165.902640 3.200000 0.000000                 
1415             5                27-476004        0.000000 0.000000 55.046880 2.800000 0.000000                 
1416             5                27-476005        0.000000 0.000000 45.628560 0.600000 0.000000                 
1417             5                27-476005        0.000000 0.000000 127.863600 0.600000 0.000000                 
1418             5                27-476006        0.000000 0.000000 32.552640 2.500000 0.000000                 
1419             5                27-478023        0.000000 0.000000 29.504640 4.200000 0.000000                 
1420             5                27-478024        0.000000 0.000000 62.880240 5.700000 0.000000                 
1421             5                27-478051        0.000000 0.000000 79.674720 2.400000 0.000000                 
1422             5                27-478052        0.000000 0.000000 65.471040 1.500000 0.000000                 
1423             5                27-478053        0.000000 0.000000 61.203840 1.000000 0.000000                 
1424             5                27-478056        0.000000 0.000000 58.674000 8.200000 0.000000                 
1425             5                27-478057        0.000000 0.000000 100.980240 3.900000 0.000000                 
1426             5                27-478025        0.000000 0.000000 264.932160 6.000000 0.000000                 
1427             5                27-478065        0.000000 0.000000 262.950960 3.900000 0.000000                 
1428             5                27-478067        0.000000 0.000000 354.421440 1.700000 0.000000                 
1429             5                30-478028        0.000000 0.000000 102.047040 0.500000 0.000000                 
1430             5                30-478027        0.000000 0.000000 84.094320 2.000000 0.000000                 
1431             5                30-478008        0.000000 0.000000 49.225200 2.300000 0.000000                 
1432             5                30-478048        0.000000 0.000000 34.046160 3.000000 0.000000                 
1433             5                30-478074        0.000000 0.000000 63.154560 1.500000 0.000000                 
1434             5                30-478068        0.000000 0.000000 42.184320 1.400000 0.000000                 
1435             5                30-478066        0.000000 0.000000 335.158080 3.700000 0.000000                 
1436             5                30-478064        0.000000 0.000000 123.565920 7.900000 0.000000                 
1437             5                33-478048        0.000000 0.000000 42.915840 1.400000 0.000000                 
1438             5                33-478049        0.000000 0.000000 137.525760 1.200000 0.000000                 
1439             5                33-478083        0.000000 0.000000 303.824640 1.200000 0.000000                 
1440             5                33-478126        0.000000 0.000000 50.017680 1.500000 0.000000                 
1441             5                36-474087        0.000000 0.000000 48.249840 0.500000 0.000000                 
1442             5                36-474096        0.000000 0.000000 20.055840 1.900000 0.000000                 
1443             5                36-474089        0.000000 0.000000 135.148320 0.500000 0.000000                 
1444             5                36-474078        0.000000 0.000000 34.655760 0.900000 0.000000                 
1445             5                36-474095        0.000000 0.000000 29.961840 0.400000 0.000000                 
1446             5                36-474035        0.000000 0.000000 33.406080 0.400000 0.000000                 
1447             5                36-474041        0.000000 0.000000 64.251840 0.200000 0.000000                 
1448             5                36-474028        0.000000 0.000000 74.767440 1.500000 0.000000                 
1449             5                36-474075        0.000000 0.000000 44.439840 0.400000 0.000000                 
1450             5                36-474049        0.000000 0.000000 47.122080 0.300000 0.000000                 
1451             5                36-474051        0.000000 0.000000 152.003760 0.400000 0.000000                 
1452             5                39-474006        0.000000 0.000000 64.556640 0.100000 0.000000                 
1453             5                39-474007        0.000000 0.000000 29.748480 0.500000 0.000000                 
1454             5                39-474009        0.000000 0.000000 27.218640 0.000000 0.000000                 
1455             5                39-476013        0.000000 0.000000 23.012400 1.400000 0.000000                 
1456             5                5131             0.000000 0.000000 30.937200 0.600000 0.000000                 
1457             5                39-476054        0.000000 0.000000 31.028640 0.700000 0.000000                 
1458             5                4647             0.000000 0.000000 62.697360 2.800000 0.000000                 
1459             5                39-476056        0.000000 0.000000 171.450000 0.400000 0.000000                 
1460             5                36-474075        0.000000 0.000000 139.781280 0.400000 0.000000                 
1461             5                33-478084        0.000000 0.000000 165.780720 2.400000 0.000000                 
1462             5                36-476102        0.000000 0.000000 77.967840 0.200000 0.000000                 
1463             5                36-476068        0.000000 0.000000 43.525440 0.400000 0.000000                 
1464             5                36-476056        0.000000 0.000000 70.469760 0.200000 0.000000                 
1465             5                36-476036        0.000000 0.000000 39.776400 0.400000 0.000000                 
1466             5                36-476027        0.000000 0.000000 65.958720 0.100000 0.000000                 
1467             5                36-476038        0.000000 0.000000 125.516640 0.400000 0.000000                 
1468             5                36-476027        0.000000 0.000000 63.672720 0.100000 0.000000                 
1469             5                36-476014        0.000000 0.000000 42.153840 13.900000 0.000000                 
1470             5                36-476014        0.000000 0.000000 19.050000 13.900000 0.000000                 
1471             5                36-476014        0.000000 0.000000 87.782400 13.900000 0.000000                 
1472             5                33-476097        0.000000 0.000000 37.063680 8.900000 0.000000                 
1473             5                36-476064        0.000000 0.000000 97.200720 0.000000 0.000000                 
1474             5                36-476067        0.000000 0.000000 170.261280 0.400000 0.000000                 
1475             5                36-476063        0.000000 0.000000 283.585920 0.400000 0.000000                 
1476             5                36-480004        0.000000 0.000000 145.724880 0.900000 0.000000                 
1477             5                36-480005        0.000000 0.000000 81.076800 0.500000 0.000000                 
1478             5                36-480006        0.000000 0.000000 154.716480 2.100000 0.000000                 
1479             5                36-480003        0.000000 0.000000 186.354720 0.300000 0.000000                 
1480             5                36-480001        0.000000 0.000000 215.950800 1.500000 0.000000                 
1481             5                36-482046        0.000000 0.000000 68.031360 2.100000 0.000000                 
1482             5                36-482008        0.000000 0.000000 83.058000 2.900000 0.000000                 
1483             5                36-482016        0.000000 0.000000 114.879120 0.800000 0.000000                 
1484             5                36-482017        0.000000 0.000000 47.213520 1.000000 0.000000                 
1485             5                36-482020        0.000000 0.000000 74.797920 2.200000 0.000000                 
1486             5                36-482055        0.000000 0.000000 138.562080 2.100000 0.000000                 
1487             5                36-482023        0.000000 0.000000 123.718320 0.500000 0.000000                 
1488             5                36-482011        0.000000 0.000000 168.462960 1.900000 0.000000                 
1489             5                36-484016        0.000000 0.000000 51.755040 1.300000 0.000000                 
1490             5                36-484022        0.000000 0.000000 60.319920 0.500000 0.000000                 
1491             5                36-484021        0.000000 0.000000 28.376880 0.400000 0.000000                 
1492             5                36-484028        0.000000 0.000000 110.429040 1.800000 0.000000                 
1493             5                36-484029        0.000000 0.000000 59.527440 1.700000 0.000000                 
1494             5                36-484041        0.000000 0.000000 394.898880 12.500000 0.000000                 
1495             5                36-482004        0.000000 0.000000 143.560800 1.000000 0.000000                 
1496             5                36-480026        0.000000 0.000000 96.713040 0.300000 0.000000                 
1497             5                36-480024        0.000000 0.000000 175.077120 6.400000 0.000000                 
1498             5                36-482016        0.000000 0.000000 323.270880 0.800000 0.000000                 
1499             5                33-486053        0.000000 0.000000 143.164560 10.900000 0.000000                 
1500             5                33-486059        0.000000 0.000000 259.598160 1.400000 0.000000                 
1501             5                33-486073        0.000000 0.000000 83.362800 3.100000 0.000000                 
1502             5                33-484049        0.000000 0.000000 77.602080 2.700000 0.000000                 
1503             5                33-484086        0.000000 0.000000 33.680400 4.800000 0.000000                 
1504             5                33-484048        0.000000 0.000000 33.192720 1.100000 0.000000                 
1505             5                33-484003        0.000000 0.000000 38.862000 1.200000 0.000000                 
1506             5                33-484002        0.000000 0.000000 30.540960 2.600000 0.000000                 
1507             5                33-484001        0.000000 0.000000 28.285440 0.800000 0.000000                 
1508             5                33-486011        0.000000 0.000000 237.225840 10.800000 0.000000                 
1509             5                33-486027        0.000000 0.000000 68.762880 0.900000 0.000000                 
1510             5                33-486075        0.000000 0.000000 218.175840 11.800000 0.000000                 
1511             5                33-486043        0.000000 0.000000 4.023360 1.600000 0.000000                 
1512             5                33-486043        0.000000 0.000000 4.028263 1.600000 0.000000                 
1513             5                36-486011        0.000000 0.000000 0.000000 0.000000 0.000000                 
1514             5                36-486010        0.000000 0.000000 158.556960 1.600000 0.000000                 
1530             5                2285             0.000000 0.000000 59.405520 1.100000 0.000000                 
1531             5                2431             0.000000 0.000000 2.438400 0.400000 0.000000                 
1532             5                2284             0.000000 0.000000 142.250160 0.400000 0.000000                 
1533             5                2284             0.000000 0.000000 238.231680 0.400000 0.000000                 
1534             5                33-486007        0.000000 0.000000 432.023520 1.400000 0.000000                 
1535             5                33-488083        0.000000 0.000000 271.241520 0.200000 0.000000                 
1536             5                33-490030        0.000000 0.000000 58.552080 28.800000 0.000000                 
1537             5                33-488083        0.000000 0.000000 51.145440 0.200000 0.000000                 
1538             5                36-486002        0.000000 0.000000 109.240320 2.600000 0.000000                 
1539             5                36-488003        0.000000 0.000000 54.315360 2.400000 0.000000                 
1540             5                39-476030        0.000000 0.000000 153.984960 2.500000 0.000000                 
1541             5                39-476023        0.000000 0.000000 58.704480 2.200000 0.000000                 
1542             5                39-476006        0.000000 0.000000 104.576880 1.900000 0.000000                 
1543             5                39-476002        0.000000 0.000000 11.247120 0.200000 0.000000                 
1544             5                36-476090        0.000000 0.000000 58.430160 0.600000 0.000000                 
1545             5                36-476095        0.000000 0.000000 85.374480 0.100000 0.000000                 
1546             5                36-476091        0.000000 0.000000 139.080240 0.400000 0.000000                 
1547             5                36-478099        0.000000 0.000000 82.844640 5.200000 0.000000                 
1548             5                36-478100        0.000000 0.000000 76.474320 8.700000 0.000000                 
1549             5                39-478011        0.000000 0.000000 100.797360 7.100000 0.000000                 
1550             5                39-476063        0.000000 0.000000 93.817440 0.500000 0.000000                 
1551             5                39-478016        0.000000 0.000000 43.373040 0.000000 0.000000                 
1552             5                39-478017        0.000000 0.000000 137.495280 0.200000 0.000000                 
1553             5                39-476045        0.000000 0.000000 126.644400 1.900000 0.000000                 
1554             5                39-478095        0.000000 0.000000 175.595280 0.000000 0.000000                 
1555             5                39-476064        0.000000 0.000000 87.447120 0.600000 0.000000                 
1556             5                39-478021        0.000000 0.000000 91.440000 0.900000 0.000000                 
1557             5                39-476046        0.000000 0.000000 49.834800 1.400000 0.000000                 
1558             5                39-476019        0.000000 0.000000 64.404240 0.100000 0.000000                 
1559             5                39-478014        0.000000 0.000000 76.352400 7.700000 0.000000                 
1560             5                39-478058        0.000000 0.000000 241.005360 0.000000 0.000000                 
1561             5                39-478024        0.000000 0.000000 288.218880 4.300000 0.000000                 
1562             5                39-478094        0.000000 0.000000 0.701040 0.900000 0.000000                 
1677             5                39-482004        0.000000 0.000000 95.615760 0.300000 0.000000                 
1678             5                39-480018        0.000000 0.000000 108.447840 0.100000 0.000000                 
1679             5                39-480018        0.000000 0.000000 113.873280 0.100000 0.000000                 
1680             5                39-484001        0.000000 0.000000 101.742240 0.100000 0.000000                 
1681             5                39-482006        0.000000 0.000000 28.011120 0.800000 0.000000                 
1682             5                36-484032        0.000000 0.000000 55.260240 6.600000 0.000000                 
1683             5                36-484032        0.000000 0.000000 140.604240 6.600000 0.000000                 
1684             5                39-480018        0.000000 0.000000 145.816320 0.100000 0.000000                 
1685             5                39-478095        0.000000 0.000000 170.139360 0.000000 0.000000                 

[SUBAREAS]
;;Subcatchment   N-Imperv   N-Perv     S-Imperv   S-Perv     PctZero    RouteTo    PctRouted 
;;-------------- ---------- ---------- ---------- ---------- ---------- ---------- ----------
1352             0.000000   0.000000   0.000000   0.000000   0.000000   OUTLET    
1353             0.000000   0.000000   0.000000   0.000000   0.000000   OUTLET    
1354             0.000000   0.000000   0.000000   0.000000   0.000000   OUTLET    
1355             0.000000   0.000000   0.000000   0.000000   0.000000   OUTLET    
1356             0.000000   0.000000   0.000000   0.000000   0.000000   OUTLET    
1357             0.000000   0.000000   0.000000   0.000000   0.000000   OUTLET    
1358             0.000000   0.000000   0.000000   0.000000   0.000000   OUTLET    
1359             0.000000   0.000000   0.000000   0.000000   0.000000   OUTLET    
1360             0.000000   0.000000   0.000000   0.000000   0.000000   OUTLET    
1361             0.000000   0.000000   0.000000   0.000000   0.000000   OUTLET    
1362             0.000000   0.000000   0.000000   0.000000   0.000000   OUTLET    
1363             0.000000   0.000000   0.000000   0.000000   0.000000   OUTLET    
1364             0.000000   0.000000   0.000000   0.000000   0.000000   OUTLET    
1365             0.000000   0.000000   0.000000   0.000000   0.000000   OUTLET    
1366             0.000000   0.000000   0.000000   0.000000   0.000000   OUTLET    
1367             0.000000   0.000000   0.000000   0.000000   0.000000   OUTLET    
1368             0.000000   0.000000   0.000000   0.000000   0.000000   OUTLET    
1369             0.000000   0.000000   0.000000   0.000000   0.000000   OUTLET    
1370             0.000000   0.000000   0.000000   0.000000   0.000000   OUTLET    
1371             0.000000   0.000000   0.000000   0.000000   0.000000   OUTLET    
1372             0.000000   0.000000   0.000000   0.000000   0.000000   OUTLET    
1373             0.000000   0.000000   0.000000   0.000000   0.000000   OUTLET    
1374             0.000000   0.000000   0.000000   0.000000   0.000000   OUTLET    
1375             0.000000   0.000000   0.000000   0.000000   0.000000   OUTLET    
1376             0.000000   0.000000   0.000000   0.000000   0.000000   OUTLET    
1377             0.000000   0.000000   0.000000   0.000000   0.000000   OUTLET    
1378             0.000000   0.000000   0.000000   0.000000   0.000000   OUTLET    
1379             0.000000   0.000000   0.000000   0.000000   0.000000   OUTLET    
1380             0.000000   0.000000   0.000000   0.000000   0.000000   OUTLET    
1381             0.000000   0.000000   0.000000   0.000000   0.000000   OUTLET    
1382             0.000000   0.000000   0.000000   0.000000   0.000000   OUTLET    
1383             0.000000   0.000000   0.000000   0.000000   0.000000   OUTLET    
1384             0.000000   0.000000   0.000000   0.000000   0.000000   OUTLET    
1385             0.000000   0.000000   0.000000   0.000000   0.000000   OUTLET    
1386             0.000000   0.000000   0.000000   0.000000   0.000000   OUTLET    
1387             0.000000   0.000000   0.000000   0.000000   0.000000   OUTLET    
1388             0.000000   0.000000   0.000000   0.000000   0.000000   OUTLET    
1389             0.000000   0.000000   0.000000   0.000000   0.000000   OUTLET    
1390             0.000000   0.000000   0.000000   0.000000   0.000000   OUTLET    
1391             0.000000   0.000000   0.000000   0.000000   0.000000   OUTLET    
1392             0.000000   0.000000   0.000000   0.000000   0.000000   OUTLET    
1393             0.000000   0.000000   0.000000   0.000000   0.000000   OUTLET    
1394             0.000000   0.000000   0.000000   0.000000   0.000000   OUTLET    
1395             0.000000   0.000000   0.000000   0.000000   0.000000   OUTLET    
1396             0.000000   0.000000   0.000000   0.000000   0.000000   OUTLET    
1397             0.000000   0.000000   0.000000   0.000000   0.000000   OUTLET    
1398             0.000000   0.000000   0.000000   0.000000   0.000000   OUTLET    
1399             0.000000   0.000000   0.000000   0.000000   0.000000   OUTLET    
1400             0.000000   0.000000   0.000000   0.000000   0.000000   OUTLET    
1401             0.000000   0.000000   0.000000   0.000000   0.000000   OUTLET    
1402             0.000000   0.000000   0.000000   0.000000   0.000000   OUTLET    
1403             0.000000   0.000000   0.000000   0.000000   0.000000   OUTLET    
1404             0.000000   0.000000   0.000000   0.000000   0.000000   OUTLET    
1405             0.000000   0.000000   0.000000   0.000000   0.000000   OUTLET    
1406             0.000000   0.000000   0.000000   0.000000   0.000000   OUTLET    
1407             0.000000   0.000000   0.000000   0.000000   0.000000   OUTLET    
1409             0.000000   0.000000   0.000000   0.000000   0.000000   OUTLET    
1410             0.000000   0.000000   0.000000   0.000000   0.000000   OUTLET    
1411             0.000000   0.000000   0.000000   0.000000   0.000000   OUTLET    